[General]
network = TSNNetwork
debug-on-errors = true
cmdenv-status-frequency = 1s
sim-time-limit = 250s

##########
# General setings
##########

**.ethg[*].bitrate = 1Gbps


